*Heading
*Preprint, echo=NO, model=NO, history=NO, contact=NO
*Part, name=Part-1
*Assembly, name=Assembly
*End Part
*Assembly, name=Assembly
*Instance, name=Part-1-1, part=Part-1
*Node
1,0.00115,0.00115,0.081
2,0.003928,0.00102101,0.080618
3,0.00115,-0.00115,0.081
4,0.003928,-0.00102101,0.080618
5,0.00262153,0,0.0807976
6,0.00188576,0.000575,0.0808988
7,0.00327476,0.000510504,0.0807078
8,0.00188576,-0.000575,0.0808988
9,0.00327476,-0.000510504,0.0807078
10,0.002539,0.0010855,0.080809
11,0.002539,-0.0010855,0.080809
12,0.0012197,0.0012197,0.079
13,0.003928,0.00107627,0.079
14,0.0012197,-0.0012197,0.079
15,0.003928,-0.00107627,0.079
16,0.00265844,0,0.079
17,0.00193907,0.000609848,0.079
18,0.00329322,0.000538136,0.079
19,0.00193907,-0.000609848,0.079
20,0.00329322,-0.000538136,0.079
** ... 674 like lines cut
*Element, type=T3D2
1,10,6
2,6,7
3,7,10
4,9,8
5,8,11
6,11,9
7,21,17
8,17,18
9,18,21
10,20,19
11,19,22
12,22,20
13,10,6
14,6,7
15,7,10
16,9,8
17,8,11
18,11,9
19,21,17
20,17,18
** ... 566 like lines cut
**Element, type=B33
90,1,10
91,10,2
92,2,7
93,7,5
94,5,6
95,6,1
96,3,11
97,11,4
98,4,9
99,9,5
100,5,8
101,8,3
102,12,21
103,21,13
104,13,18
105,18,16
106,16,17
107,17,12
108,14,22
109,22,15
** ... 706 like lines cut
*Elset,elset=Set-1
1
*Elset,elset=Set-2
2
*Elset,elset=Set-3
3
*Elset,elset=Set-4
4
*Elset,elset=Set-5
5
*Elset,elset=Set-6
6
*Elset,elset=Set-7
7
*Elset,elset=Set-8
8
*Elset,elset=Set-9
9
*Elset,elset=Set-10
10
*Elset,elset=Set-11
11
*Elset,elset=Set-12
12
*Elset,elset=Set-13
13
*Elset,elset=Set-14
14
*Elset,elset=Set-15
15
*Elset,elset=Set-16
16
*Elset,elset=Set-17
17
*Elset,elset=Set-18
18
*Elset,elset=Set-19
19
*Elset,elset=Set-20
20
** ... 2584 like lines cut
*Solid Section,elset =Set-1,material =Material-0
0
*Solid Section,elset =Set-2,material =Material-0
0
*Solid Section,elset =Set-3,material =Material-0
0
*Solid Section,elset =Set-4,material =Material-0
0
*Solid Section,elset =Set-5,material =Material-0
0
*Solid Section,elset =Set-6,material =Material-0
0
*Solid Section,elset =Set-7,material =Material-0
0
*Solid Section,elset =Set-8,material =Material-0
0
*Solid Section,elset =Set-9,material =Material-0
0
*Solid Section,elset =Set-10,material =Material-0
0
*Solid Section,elset =Set-11,material =Material-0
0
*Solid Section,elset =Set-12,material =Material-0
0
*Solid Section,elset =Set-13,material =Material-0
0
*Solid Section,elset =Set-14,material =Material-0
0
*Solid Section,elset =Set-15,material =Material-0
0
*Solid Section,elset =Set-16,material =Material-0
0
*Solid Section,elset =Set-17,material =Material-0
0
*Solid Section,elset =Set-18,material =Material-0
0
*Solid Section,elset =Set-19,material =Material-0
0
*Solid Section,elset =Set-20,material =Material-0
0
** ... 1132 like lines cut
*Beam Section, elset=Set-90,material =Material-0,section =L
0,0,0,0
-1,0,0
*Beam Section, elset=Set-91,material =Material-0,section =L
0,0,0,0
-1,0,0
*Beam Section, elset=Set-92,material =Material-0,section =L
0,0,0,0
-1,0,0
*Beam Section, elset=Set-93,material =Material-0,section =L
0,0,0,0
-1,0,0
*Beam Section, elset=Set-94,material =Material-0,section =L
0,0,0,0
0,0,-1
*Beam Section, elset=Set-95,material =Material-0,section =L
0,0,0,0
-1,0,0
*Beam Section, elset=Set-96,material =Material-0,section =L
0,0,0,0
0,-1,0
*Beam Section, elset=Set-97,material =Material-0,section =L
0,0,0,0
0,-1,0
*Beam Section, elset=Set-98,material =Material-0,section =L
0,0,0,0
0,-1,0
*Beam Section, elset=Set-99,material =Material-0,section =L
0,0,0,0
0,-1,0
*Beam Section, elset=Set-100,material =Material-0,section =L
0,0,0,0
0,0,-1
*Beam Section, elset=Set-101,material =Material-0,section =L
0,0,0,0
0,-1,0
*Beam Section, elset=Set-102,material =Material-0,section =L
0,0,0,0
1.75691,3.1416,0.84178
*Beam Section, elset=Set-103,material =Material-0,section =L
0,0,0,0
1.75691,3.1416,0.84178
*Beam Section, elset=Set-104,material =Material-0,section =L
0,0,0,0
1.75691,3.1416,0.84178
*Beam Section, elset=Set-105,material =Material-0,section =L
0,0,0,0
1.75691,3.1416,0.84178
*Beam Section, elset=Set-106,material =Material-0,section =L
0,0,0,0
1.75691,3.1416,0.84178
*Beam Section, elset=Set-107,material =Material-0,section =L
0,0,0,0
1.75691,3.1416,0.84178
*Beam Section, elset=Set-108,material =Material-0,section =L
0,0,0,0
1.75691,3.1416,0.84178
*Beam Section, elset=Set-109,material =Material-0,section =L
0,0,0,0
1.75691,3.1416,0.84178
** ... 2118 like lines cut
*End Instance
*End Assembly
*Material, name = Material-1
*Density
7800,
*Elastic
2e+11,0.3
