*Heading
*Preprint, echo=NO, model=NO, history=NO, contact=NO
*Part, name=Part-1
*End Part
*Assembly, name=Assembly
*Instance, name=Part-1-1, part=Part-1
*Node
1,9.12,9.12,-14
2,7.58,7.58,0
3,7.58,0,0
4,0,7.58,0
5,7.58,3.79,0
6,3.79,7.58,0
7,8.581,8.581,-9.1
8,8.0805,8.0805,-4.55
9,8.581,5.928,-9.1
10,8.0805,2.964,-4.55
11,5.928,8.581,-9.1
12,2.964,8.0805,-4.55
13,-9.12,9.12,-14
14,-7.58,7.58,0
15,-7.58,0,0
16,-3.79,7.58,0
17,-7.58,3.79,0
18,-8.581,8.581,-9.1
19,-8.0805,8.0805,-4.55
20,-5.928,8.581,-9.1
** ... 32 like lines cut
*Element, type=T3D2
1,9,7
2,7,11
3,9,11
4,10,8
5,8,12
6,10,12
7,10,5
8,6,12
9,5,8
10,8,6
11,20,18
12,18,22
13,20,22
14,21,19
15,19,23
16,21,23
17,21,16
18,17,23
19,16,19
20,19,17
** ... 20 like lines cut
**Element, type=B33
41,1,7
42,7,8
43,8,2
44,1,9
45,9,10
46,10,3
47,1,11
48,11,12
49,12,4
50,13,18
51,18,19
52,19,14
53,13,20
54,20,21
55,21,4
56,13,22
57,22,23
58,23,15
59,24,29
60,29,30
** ... 64 like lines cut
*Elset,elset=Set-1
1
*Elset,elset=Set-2
2
*Elset,elset=Set-3
3
*Elset,elset=Set-4
4
*Elset,elset=Set-5
5
*Elset,elset=Set-6
6
*Elset,elset=Set-7
7
*Elset,elset=Set-8
8
*Elset,elset=Set-9
9
*Elset,elset=Set-10
10
*Elset,elset=Set-11
11
*Elset,elset=Set-12
12
*Elset,elset=Set-13
13
*Elset,elset=Set-14
14
*Elset,elset=Set-15
15
*Elset,elset=Set-16
16
*Elset,elset=Set-17
17
*Elset,elset=Set-18
18
*Elset,elset=Set-19
19
*Elset,elset=Set-20
20
** ... 208 like lines cut
*Solid Section,elset =Set-1,material =Material-1
0.0175
*Solid Section,elset =Set-2,material =Material-1
0.0175
*Solid Section,elset =Set-3,material =Material-1
0.0175
*Solid Section,elset =Set-4,material =Material-1
0.0175
*Solid Section,elset =Set-5,material =Material-1
0.0175
*Solid Section,elset =Set-6,material =Material-1
0.0175
*Solid Section,elset =Set-7,material =Material-1
0.0175
*Solid Section,elset =Set-8,material =Material-1
0.0175
*Solid Section,elset =Set-9,material =Material-1
0.0175
*Solid Section,elset =Set-10,material =Material-1
0.0175
*Solid Section,elset =Set-11,material =Material-1
0.0175
*Solid Section,elset =Set-12,material =Material-1
0.0175
*Solid Section,elset =Set-13,material =Material-1
0.0175
*Solid Section,elset =Set-14,material =Material-1
0.0175
*Solid Section,elset =Set-15,material =Material-1
0.0175
*Solid Section,elset =Set-16,material =Material-1
0.0175
*Solid Section,elset =Set-17,material =Material-1
0.0175
*Solid Section,elset =Set-18,material =Material-1
0.0175
*Solid Section,elset =Set-19,material =Material-1
0.0175
*Solid Section,elset =Set-20,material =Material-1
0.0175
** ... 40 like lines cut
*Beam Section, elset=Set-41,material =Material-1,section =L
0.2,0.2,0.05,0.05
-1,0,0
*Beam Section, elset=Set-42,material =Material-1,section =L
0.2,0.2,0.05,0.05
-1,0,0
*Beam Section, elset=Set-43,material =Material-1,section =L
0.2,0.2,0.05,0.05
-1,0,0
*Beam Section, elset=Set-44,material =Material-1,section =L
0.2,0.2,0.05,0.05
-1,0,0
*Beam Section, elset=Set-45,material =Material-1,section =L
0.2,0.2,0.05,0.05
-1,0,0
*Beam Section, elset=Set-46,material =Material-1,section =L
0.2,0.2,0.05,0.05
-1,0,0
*Beam Section, elset=Set-47,material =Material-1,section =L
0.2,0.2,0.05,0.05
-1,0,0
*Beam Section, elset=Set-48,material =Material-1,section =L
0.2,0.2,0.05,0.05
-1,0,0
*Beam Section, elset=Set-49,material =Material-1,section =L
0.2,0.2,0.05,0.05
-1,0,0
*Beam Section, elset=Set-50,material =Material-1,section =L
0.2,0.2,0.05,0.05
0,1,0
*Beam Section, elset=Set-51,material =Material-1,section =L
0.2,0.2,0.05,0.05
0,1,0
*Beam Section, elset=Set-52,material =Material-1,section =L
0.2,0.2,0.05,0.05
0,1,0
*Beam Section, elset=Set-53,material =Material-1,section =L
0.2,0.2,0.05,0.05
0,1,0
*Beam Section, elset=Set-54,material =Material-1,section =L
0.2,0.2,0.05,0.05
0,1,0
*Beam Section, elset=Set-55,material =Material-1,section =L
0.2,0.2,0.05,0.05
0,1,0
*Beam Section, elset=Set-56,material =Material-1,section =L
0.2,0.2,0.05,0.05
0,1,0
*Beam Section, elset=Set-57,material =Material-1,section =L
0.2,0.2,0.05,0.05
0,1,0
*Beam Section, elset=Set-58,material =Material-1,section =L
0.2,0.2,0.05,0.05
0,1,0
*Beam Section, elset=Set-59,material =Material-1,section =L
0.2,0.2,0.05,0.05
1,0,0
*Beam Section, elset=Set-60,material =Material-1,section =L
0.2,0.2,0.05,0.05
1,0,0
** ... 192 like lines cut
*End Instance
*End Assembly
*Material, name = Material-1
*Density
7800,
*Elastic
2e+11,0.3
