*Heading
*Preprint, echo=NO, model=NO, history=NO, contact=NO
*Part, name=Part-1
*Assembly, name=Assembly
*End Part
*Assembly, name=Assembly
*Instance, name=Part-1-1, part=Part-1
*Node
*End Instance
*End Assembly
*Material, name = Material-1
*Density
7800,
*Elastic
2e+11,0.3
